89
conformer = 1
C 	 2.405171 	 -2.828521 	 2.627594 	 0
C 	 1.792491 	 -3.296741 	 3.908040 	 0
H 	 0.847465 	 -3.781893 	 3.664179 	 0
H 	 2.431713 	 -4.013788 	 4.413855 	 0
H 	 1.582957 	 -2.445379 	 4.550411 	 0
O 	 2.307510 	 -1.673460 	 2.243537 	 0
C 	 3.156222 	 -3.816840 	 1.825650 	 0
C 	 2.782398 	 -5.157622 	 1.750758 	 0
C 	 4.264006 	 -3.372000 	 1.102738 	 0
C 	 3.496130 	 -6.028411 	 0.947767 	 0
H 	 1.915695 	 -5.509024 	 2.290199 	 0
C 	 4.986466 	 -4.252214 	 0.320669 	 0
H 	 4.572242 	 -2.342723 	 1.203465 	 0
C 	 4.597395 	 -5.580260 	 0.234278 	 0
H 	 3.195123 	 -7.064024 	 0.882028 	 0
H 	 5.856594 	 -3.904959 	 -0.217585 	 0
H 	 5.158000 	 -6.268423 	 -0.381877 	 0
C 	 -0.035463 	 6.134588 	 0.562781 	 0
C 	 -0.395065 	 5.815049 	 2.014765 	 0
C 	 -1.902959 	 5.842970 	 2.234018 	 0
O 	 0.068365 	 4.525566 	 2.379830 	 0
H 	 1.036120 	 6.024218 	 0.402230 	 0
H 	 -0.563370 	 5.459472 	 -0.108552 	 0
H 	 -0.318903 	 7.155278 	 0.322050 	 0
H 	 0.075747 	 6.563485 	 2.671482 	 0
H 	 -2.129931 	 5.579468 	 3.263434 	 0
H 	 -2.292787 	 6.834827 	 2.025229 	 0
H 	 -2.387855 	 5.124736 	 1.577502 	 0
H 	 1.033909 	 4.528492 	 2.337022 	 0
C 	 3.794574 	 -1.077841 	 -1.982467 	 0
C 	 2.395157 	 -0.580975 	 -2.375417 	 0
C 	 1.645372 	 -1.706108 	 -3.100522 	 0
O 	 1.647965 	 -0.144771 	 -1.289496 	 4
H 	 4.338712 	 -0.282816 	 -1.475171 	 0
H 	 3.728775 	 -1.941308 	 -1.318039 	 0
H 	 4.354752 	 -1.363178 	 -2.868669 	 0
H 	 2.535729 	 0.245134 	 -3.102653 	 0
H 	 0.630514 	 -1.386466 	 -3.318237 	 0
H 	 2.144182 	 -1.949700 	 -4.034154 	 0
H 	 1.603142 	 -2.600853 	 -2.474403 	 0
Mn 	 2.071299 	 1.408459 	 -0.094057 	 1
O 	 4.415865 	 0.273890 	 1.225278 	 0
O 	 2.786012 	 3.768943 	 1.473609 	 0
N 	 0.174690 	 2.309757 	 -0.935014 	 1
C 	 -0.241914 	 1.780322 	 -2.238427 	 0
H 	 -0.440059 	 0.713540 	 -2.168948 	 0
H 	 0.569075 	 1.927209 	 -2.951321 	 0
H 	 -1.134071 	 2.281186 	 -2.625789 	 0
N 	 0.638188 	 0.597302 	 1.349536 	 1
C 	 -2.285329 	 2.448284 	 -0.205296 	 0
H 	 -2.338440 	 3.137279 	 -1.051722 	 0
H 	 -2.745537 	 2.956765 	 0.645260 	 0
C 	 2.409602 	 2.836764 	 0.890523 	 0
C 	 3.464081 	 0.672581 	 0.701614 	 0
C 	 -3.144652 	 0.279134 	 0.747042 	 0
H 	 -3.270232 	 -0.753579 	 0.424478 	 0
H 	 -4.008120 	 0.542912 	 1.360265 	 0
C 	 -0.817635 	 2.144852 	 0.151987 	 0
H 	 -0.516626 	 2.850461 	 0.936287 	 0
C 	 -1.874456 	 0.391544 	 1.601225 	 0
H 	 -1.702339 	 -0.557552 	 2.113857 	 0
H 	 -1.999953 	 1.176280 	 2.350418 	 0
C 	 -3.084689 	 1.179792 	 -0.493025 	 0
H 	 -4.096495 	 1.451015 	 -0.800683 	 0
H 	 -2.630042 	 0.629516 	 -1.316001 	 0
C 	 0.706935 	 1.148113 	 2.713784 	 0
H 	 0.416292 	 2.196654 	 2.731309 	 0
H 	 1.731486 	 1.060260 	 3.073112 	 0
H 	 0.060618 	 0.593087 	 3.398682 	 0
C 	 -0.682321 	 0.723312 	 0.706073 	 0
H 	 -0.699127 	 0.018488 	 -0.130744 	 0
H 	 0.794347 	 -0.397854 	 1.496398 	 0
C 	 3.167355 	 2.151650 	 -1.271975 	 0
O 	 3.939007 	 2.676730 	 -1.950925 	 0
H 	 0.316126 	 3.313445 	 -1.068228 	 0
C 	 -1.667383 	 -3.840659 	 -2.772148 	 0
C 	 -2.357076 	 -2.527480 	 -2.407631 	 0
C 	 -3.720565 	 -2.800689 	 -1.772113 	 0
O 	 -1.549849 	 -1.755507 	 -1.540366 	 0
H 	 -0.711915 	 -3.647218 	 -3.254096 	 0
H 	 -1.492206 	 -4.421747 	 -1.868143 	 0
H 	 -2.290481 	 -4.418884 	 -3.448469 	 0
H 	 -2.485578 	 -1.912796 	 -3.308480 	 0
H 	 -4.226252 	 -1.866338 	 -1.538472 	 0
H 	 -4.345850 	 -3.374567 	 -2.450011 	 0
H 	 -3.584591 	 -3.367952 	 -0.852887 	 0
H 	 -1.424995 	 -2.301443 	 -0.742412 	 0
K 	 1.533688 	 -1.732071 	 0.085058 	 0
Br 	 -0.400156 	 -3.556548 	 1.052296 	 0
