89
conformer = 2
C 	 3.316091 	 -3.277914 	 3.582806 	 0
C 	 3.163806 	 -4.017085 	 4.868472 	 0
H 	 2.872037 	 -5.084333 	 4.874612 	 0
H 	 4.235379 	 -3.880598 	 5.397115 	 0
H 	 2.365174 	 -3.573281 	 5.404344 	 0
O 	 3.284819 	 -2.063488 	 3.610951 	 0
C 	 3.642175 	 -3.951649 	 2.308325 	 0
C 	 2.811735 	 -5.042493 	 1.893061 	 0
C 	 4.259916 	 -3.212168 	 1.313072 	 0
C 	 2.731449 	 -5.443584 	 0.474848 	 0
H 	 2.018976 	 -5.369888 	 2.550926 	 0
C 	 4.429747 	 -3.804091 	 0.059597 	 0
H 	 4.810662 	 -2.299030 	 1.496173 	 0
C 	 3.582616 	 -4.835436 	 -0.448998 	 0
H 	 2.050834 	 -6.284837 	 0.191201 	 0
H 	 5.086428 	 -3.197532 	 -0.676996 	 0
H 	 3.492129 	 -5.330786 	 -1.525490 	 0
C 	 -1.179913 	 6.951662 	 0.063846 	 0
C 	 -1.622039 	 6.782475 	 1.479014 	 0
C 	 -3.142778 	 6.561403 	 1.536025 	 0
O 	 -0.655642 	 5.952904 	 2.213524 	 0
H 	 -1.260326 	 8.012800 	 -0.159540 	 0
H 	 -0.090498 	 6.576895 	 -0.210243 	 0
H 	 -1.740002 	 6.274102 	 -0.621425 	 0
H 	 -1.476935 	 7.901002 	 1.926711 	 0
H 	 -3.433361 	 7.728096 	 1.495808 	 0
H 	 -3.513437 	 5.904876 	 0.742204 	 0
H 	 -3.547522 	 6.217096 	 2.530274 	 0
H 	 -0.342822 	 5.178833 	 1.481993 	 0
C 	 3.749593 	 -1.090709 	 -2.715403 	 0
C 	 2.234464 	 -0.826809 	 -2.708735 	 0
C 	 1.470173 	 -2.134760 	 -2.954313 	 0
O 	 1.803555 	 -0.142195 	 -1.598422 	 4
H 	 4.088155 	 -1.425912 	 -3.786557 	 0
H 	 4.099414 	 -0.150084 	 -2.349887 	 0
H 	 3.880955 	 -1.898192 	 -1.933996 	 0
H 	 2.003203 	 -0.006439 	 -3.633293 	 0
H 	 0.284671 	 -1.929931 	 -3.366333 	 0
H 	 1.984737 	 -2.808884 	 -3.598971 	 0
H 	 1.344710 	 -2.671268 	 -1.885369 	 0
Mn 	 1.979305 	 1.026616 	 -0.202047 	 1
O 	 4.445079 	 -0.322445 	 0.918144 	 0
O 	 1.726715 	 3.155298 	 1.829448 	 0
N 	 -0.312844 	 1.890736 	 -0.863740 	 1
C 	 -0.694298 	 1.327238 	 -2.123071 	 0
H 	 0.015957 	 0.633793 	 -2.425276 	 0
H 	 -1.181129 	 2.042969 	 -2.854316 	 0
H 	 -1.504968 	 0.565863 	 -1.988672 	 0
N 	 0.132747 	 -0.055494 	 1.338143 	 0
C 	 -2.457810 	 2.632760 	 0.223564 	 0
H 	 -2.296481 	 3.646451 	 -0.265080 	 0
H 	 -2.735727 	 2.966120 	 1.184837 	 0
C 	 1.903930 	 2.219833 	 1.152262 	 0
C 	 3.485740 	 0.249780 	 0.571247 	 0
C 	 -3.743998 	 0.545421 	 0.833992 	 0
H 	 -3.749096 	 -0.443599 	 0.353532 	 0
H 	 -4.665373 	 0.389703 	 1.379780 	 0
C 	 -1.132898 	 1.827035 	 0.351030 	 0
H 	 -0.748546 	 2.452809 	 1.045830 	 0
C 	 -2.581128 	 0.380823 	 1.610028 	 0
H 	 -2.473858 	 -0.699931 	 2.046063 	 0
H 	 -2.432922 	 0.916254 	 2.515098 	 0
C 	 -3.759102 	 1.662556 	 -0.122694 	 0
H 	 -4.452102 	 2.407709 	 0.175479 	 0
H 	 -3.522288 	 1.357140 	 -1.196736 	 0
C 	 0.041083 	 -0.267835 	 2.770752 	 0
H 	 -0.059109 	 0.721092 	 3.079977 	 0
H 	 0.900673 	 -0.809529 	 3.242276 	 0
H 	 -0.617369 	 -1.108593 	 3.086519 	 0
C 	 -1.301419 	 0.433548 	 0.751638 	 0
H 	 -1.524381 	 -0.278780 	 -0.250943 	 0
H 	 0.231588 	 -0.980118 	 0.939287 	 0
C 	 2.727430 	 2.424986 	 -1.031815 	 0
O 	 3.043671 	 3.261671 	 -1.775322 	 0
H 	 0.118090 	 2.842921 	 -0.961417 	 0
C 	 -3.222645 	 -3.840855 	 -2.719356 	 0
C 	 -2.789000 	 -2.299163 	 -3.169423 	 0
C 	 -3.972588 	 -1.456667 	 -3.082199 	 0
O 	 -1.742769 	 -1.749689 	 -2.379405 	 0
H 	 -2.273473 	 -4.514199 	 -2.841653 	 0
H 	 -3.496792 	 -3.822460 	 -1.675564 	 0
H 	 -4.071352 	 -4.162067 	 -3.294403 	 0
H 	 -2.357879 	 -2.096936 	 -4.089494 	 0
H 	 -3.834153 	 -0.386039 	 -3.159985 	 0
H 	 -4.513928 	 -1.554090 	 -4.066479 	 0
H 	 -4.641762 	 -1.809510 	 -2.270136 	 0
H 	 -1.707410 	 -2.017686 	 -1.473078 	 0
K 	 1.786888 	 -2.217373 	 0.224715 	 0
Br 	 -0.590900 	 -3.001718 	 1.010989 	 0
