89
conformation = 4
C 	 3.069752 	 -3.335068 	 0.128811 
C 	 2.222298 	 -3.648238 	 1.192874 
H 	 2.610684 	 -3.461391 	 2.165483 
H 	 1.444874 	 -2.853927 	 1.229874 
H 	 1.716140 	 -4.639321 	 1.045433 
O 	 3.896961 	 -2.406602 	 0.194481 
C 	 3.101889 	 -4.370409 	 -0.939321 
C 	 3.805823 	 -5.518596 	 -0.652243 
C 	 2.465342 	 -4.133916 	 -2.144466 
C 	 3.972789 	 -6.423164 	 -1.671150 
H 	 4.390941 	 -5.621644 	 0.275023 
C 	 2.673779 	 -5.093946 	 -3.124289 
H 	 1.658604 	 -3.337089 	 -2.262810 
C 	 3.460031 	 -6.187771 	 -2.947634 
H 	 4.381844 	 -7.418114 	 -1.670809 
H 	 2.102419 	 -4.967329 	 -3.961119 
H 	 3.530098 	 -6.842204 	 -3.724208 
C 	 -1.884953 	 1.744181 	 -1.959375 
C 	 -2.964484 	 2.562366 	 -2.791292 
C 	 -2.351241 	 3.125887 	 -4.151186 
O 	 -4.027618 	 1.798428 	 -2.980697 
H 	 -2.438219 	 1.955060 	 -0.976698 
H 	 -2.038381 	 0.692130 	 -2.182278 
H 	 -0.829485 	 2.090199 	 -1.979046 
H 	 -3.075557 	 3.532826 	 -2.153707 
H 	 -2.849853 	 4.034049 	 -4.186657 
H 	 -1.292398 	 3.318354 	 -4.015823 
H 	 -2.219951 	 2.755167 	 -5.131821 
H 	 -3.731834 	 0.894067 	 -3.256142 
C 	 4.813801 	 1.997838 	 -0.226314 
C 	 3.396543 	 1.896225 	 -0.921043 
C 	 3.379393 	 1.063798 	 -2.292013 
O 	 2.425985 	 1.520559 	 -0.105470 
H 	 5.448066 	 2.049324 	 -1.111638 
H 	 5.055171 	 2.863887 	 0.321724 
H 	 4.902319 	 1.315391 	 0.612548 
H 	 3.322776 	 2.885870 	 -1.387439 
H 	 2.267050 	 0.917860 	 -2.424877 
H 	 3.757898 	 1.756941 	 -3.159431 
H 	 3.917450 	 0.135442 	 -2.393187 
Mn 	 2.513111 	 1.760371 	 2.451307 
O 	 3.915216 	 -0.772648 	 2.671644 
O 	 2.144679 	 1.748710 	 5.322318 
N 	 1.486077 	 3.506034 	 2.235330 
C 	 1.759309 	 4.285651 	 1.039496 
H 	 1.659346 	 3.483603 	 0.290350 
H 	 2.797607 	 4.585490 	 0.966810 
H 	 1.013112 	 5.105319 	 0.869134 
N 	 0.434281 	 0.722485 	 2.035883 
C 	 -0.884370 	 4.468343 	 2.267520 
H 	 -1.099660 	 4.565085 	 1.204878 
H 	 -0.470297 	 5.387046 	 2.817407 
C 	 2.253785 	 1.571301 	 4.159722 
C 	 3.479814 	 0.295903 	 2.509447 
C 	 -2.601205 	 2.369810 	 2.759246 
H 	 -3.629307 	 2.184931 	 2.789674 
H 	 -2.154772 	 2.059534 	 3.693952 
C 	 0.061592 	 3.207673 	 2.490872 
H 	 0.077934 	 2.892958 	 3.498777 
C 	 -1.901659 	 1.847244 	 1.582087 
H 	 -2.247543 	 2.409747 	 0.788953 
H 	 -2.288080 	 0.778089 	 1.300267 
C 	 -2.244388 	 3.887534 	 2.682050 
H 	 -2.207156 	 4.131376 	 3.719676 
H 	 -3.168941 	 4.468653 	 2.297508 
C 	 -0.030317 	 -0.244379 	 3.119946 
H 	 -0.422942 	 0.273457 	 4.001069 
H 	 0.717936 	 -0.836195 	 3.427826 
H 	 -0.871461 	 -0.845004 	 2.697847 
C 	 -0.325090 	 2.018031 	 1.627255 
H 	 -0.025381 	 2.311263 	 0.653367 
H 	 0.223318 	 0.080295 	 1.338096 
C 	 3.938903 	 2.635580 	 2.927199 
O 	 4.806705 	 3.040768 	 3.584913 
H 	 1.703813 	 4.000377 	 3.066984 
C 	 -5.479399 	 -4.234497 	 -0.873341 
C 	 -6.302583 	 -4.906304 	 -2.030227 
C 	 -7.167563 	 -3.709804 	 -2.688142 
O 	 -5.321242 	 -5.438205 	 -2.898586 
H 	 -4.614638 	 -4.788193 	 -0.472489 
H 	 -5.215317 	 -3.208822 	 -1.182223 
H 	 -6.102923 	 -4.239088 	 0.100927 
H 	 -6.893691 	 -5.788894 	 -1.720651 
H 	 -6.636515 	 -2.664019 	 -2.607786 
H 	 -7.492121 	 -3.857249 	 -3.689565 
H 	 -8.092167 	 -3.425593 	 -2.149756 
H 	 -4.462039 	 -5.039345 	 -2.954307 
K 	 2.874263 	 -0.507526 	 0.195893 
Br 	 0.036279 	 -1.394546 	 -0.481952 
