89
conformation = 3
C 	 2.712738 	 -3.481799 	 1.986158 
C 	 2.220732 	 -3.792660 	 3.289691 
H 	 3.017778 	 -3.391893 	 4.087633 
H 	 1.346228 	 -3.203061 	 3.585201 
H 	 2.179202 	 -4.879420 	 3.379243 
O 	 2.726179 	 -2.301410 	 1.624784 
C 	 3.160079 	 -4.789392 	 1.232027 
C 	 3.229149 	 -6.038161 	 1.833208 
C 	 4.172820 	 -4.502268 	 0.208802 
C 	 4.061389 	 -7.032047 	 1.312538 
H 	 2.580282 	 -6.523382 	 2.555589 
C 	 4.884160 	 -5.491236 	 -0.416738 
H 	 4.445403 	 -3.430997 	 0.030059 
C 	 4.860085 	 -6.718740 	 0.186928 
H 	 4.007407 	 -8.142509 	 1.552807 
H 	 5.585614 	 -5.525427 	 -1.342302 
H 	 5.521565 	 -7.524430 	 -0.308425 
C 	 -1.302120 	 6.588924 	 -0.430726 
C 	 -2.587617 	 6.581421 	 0.275996 
C 	 -3.785266 	 6.278225 	 -0.716766 
O 	 -2.388123 	 5.404120 	 1.116522 
H 	 -1.133038 	 6.729318 	 -1.516047 
H 	 -0.634707 	 7.410635 	 -0.038825 
H 	 -0.678512 	 5.665537 	 -0.106344 
H 	 -2.700528 	 7.397266 	 1.014402 
H 	 -3.881261 	 5.156474 	 -0.902553 
H 	 -4.760662 	 6.706989 	 -0.593885 
H 	 -3.350067 	 6.668598 	 -1.733918 
H 	 -1.694006 	 5.661706 	 1.742841 
C 	 3.613050 	 -1.028799 	 -2.531426 
C 	 2.288461 	 -0.286499 	 -2.696702 
C 	 1.207562 	 -1.254433 	 -3.129538 
O 	 1.758881 	 0.097683 	 -1.352701 
H 	 3.593305 	 -1.638192 	 -3.342864 
H 	 4.477290 	 -0.414187 	 -2.232739 
H 	 3.401876 	 -1.721240 	 -1.694180 
H 	 2.199251 	 0.761120 	 -3.145740 
H 	 0.350330 	 -0.709265 	 -2.758244 
H 	 1.214961 	 -1.539217 	 -4.207388 
H 	 1.491195 	 -2.112469 	 -2.501428 
Mn 	 2.269893 	 1.084882 	 -0.029893 
O 	 4.809418 	 0.389063 	 1.401144 
O 	 2.378323 	 3.367669 	 1.871019 
N 	 -0.131170 	 2.404029 	 -0.494173 
C 	 -0.620762 	 2.322189 	 -1.868769 
H 	 -0.158631 	 3.093115 	 -2.576134 
H 	 -1.733819 	 2.259211 	 -1.931073 
H 	 -0.240165 	 1.411575 	 -2.311146 
N 	 0.286572 	 0.448955 	 1.739077 
C 	 -2.545611 	 2.721029 	 0.497307 
H 	 -2.633614 	 3.726099 	 -0.018320 
H 	 -2.941125 	 3.168842 	 1.383714 
C 	 2.257565 	 2.478846 	 1.118552 
C 	 3.759707 	 0.604534 	 0.962701 
C 	 -3.428672 	 0.617439 	 1.357046 
H 	 -3.494825 	 -0.364642 	 0.924656 
H 	 -4.349389 	 0.606236 	 1.922670 
C 	 -1.112653 	 2.248763 	 0.775789 
H 	 -0.688859 	 3.007313 	 1.396332 
C 	 -2.255467 	 0.724944 	 2.163271 
H 	 -2.167107 	 -0.265229 	 2.629400 
H 	 -2.295009 	 1.740352 	 2.675394 
C 	 -3.404445 	 1.623812 	 0.154773 
H 	 -4.400096 	 1.792527 	 -0.238271 
H 	 -2.959893 	 1.068344 	 -0.664326 
C 	 0.775882 	 0.867742 	 3.186432 
H 	 1.036761 	 1.972105 	 3.215509 
H 	 1.633798 	 0.561455 	 3.549624 
H 	 -0.159303 	 0.867460 	 3.846680 
C 	 -1.083837 	 0.798098 	 1.306778 
H 	 -1.261211 	 0.222445 	 0.366098 
H 	 0.288424 	 -0.510345 	 1.873727 
C 	 3.485140 	 2.148711 	 -0.779442 
O 	 4.404063 	 2.838380 	 -0.819925 
H 	 0.281324 	 3.251401 	 -0.333760 
C 	 -4.624991 	 -2.913483 	 -1.668262 
C 	 -3.123267 	 -2.461970 	 -1.900169 
C 	 -2.961848 	 -1.219745 	 -2.734921 
O 	 -2.480164 	 -2.174197 	 -0.742756 
H 	 -4.543948 	 -3.772580 	 -1.024272 
H 	 -5.131492 	 -2.126800 	 -1.114644 
H 	 -5.284763 	 -3.038689 	 -2.647452 
H 	 -2.699357 	 -3.219593 	 -2.426048 
H 	 -1.969618 	 -0.851861 	 -2.709792 
H 	 -3.093299 	 -1.418658 	 -3.747694 
H 	 -3.558738 	 -0.276024 	 -2.550407 
H 	 -2.588028 	 -3.093063 	 -0.331571 
K 	 0.666573 	 -1.741992 	 0.181740 
Br 	 -0.144514 	 -4.485316 	 0.642112 
